[General]
network = TRACES
sim-time-limit = 81570s
*.numUsers = 39
*.mobileHost[*].mobility.typename = "TRACES"
*.mobileHost[*].mobility.csvFolder = "/home/user/Traces"
*.mobileHost[*].mobility.updateInterval = 1s
