[General]
network = Trails
sim-time-limit= 81570s
*.coordinator.recordedTime = 81570s
*.coordinator.trailsFolder = "/home/leonardo/MobilitySimulations/TRAILS/newyork/graph"
*.numHosts = 39
*.mobileHost[*].mobility.typename = "TRAILS"
*.mobileHost[*].mobility.updateInterval = 1s
seed-set = 3
